LAMMPS (31 Mar 2017)
#
units          metal
boundary       p p p
atom_style     full
bond_style     harmonic
angle_style    harmonic
dihedral_style fourier
improper_style cvff
pair_style     lj/cut/coul/long 12.0
kspace_style   ewald 1e-8
read_data      SOD_ZIF_TOBUNPOROUS_Optimized.data
  triclinic box = (0 0 0) to (30.6793 28.9245 25.0495) with tilt (-10.2262 -10.2262 -14.462)
  reading atoms ...
  816 atoms
  scanning bonds ...
  scanning angles ...
  scanning dihedrals ...
  scanning impropers ...
  reading bonds ...
  960 bonds
  reading angles ...
  3440 angles
  reading dihedrals ...
  6136 dihedrals
  reading impropers ...
  4032 impropers
pair_modify    mix arithmetic shift yes tail no table 0
special_bonds  lj 0.0 0.0  0.00000 coul 0.0 0.0  0.00000
set type 1 charge +0.6918 # Zn
  48 settings made for charge
set type 2 charge +0.2045 # C1
  96 settings made for charge
set type 3 charge -0.3879 # N1
  192 settings made for charge
set type 4 charge -0.0839 # C2
  192 settings made for charge
set type 5 charge +0.1310 # H1
  96 settings made for charge
set type 6 charge +0.1310 # H2
  192 settings made for charge
#
variable    TK equal 300.0
variable    RandomSeed equal 123456789
#
dump        traj_all   all     custom 100  all.lammpstrj       element xs ys zs
dump_modify traj_all   element Zn C N C H H  first yes sort id
dump        traj all xyz 10 traj.xyz
dump_modify traj element Zn C N C H H
#
velocity    all create 300 123456789
variable    dt     equal 0.0005
variable    tdamp  equal 100*0.0005
fix         2 all langevin 300 300 0.05 123456789
fix         3 all nve
thermo      100
run         1000
Ewald initialization ...
  G vector (1/distance) = 0.30782
  estimated absolute RMS force accuracy = 1.45472e-07
  estimated relative force accuracy = 1.01025e-08
  KSpace vectors: actual max1d max3d = 2976 19 29659
                  kxmax kymax kzmax  = 12 14 19
  update every 1 steps, delay 10 steps, check yes
Step Temp E_pair E_mol TotEng Press
0          300    74.424484    173.79426    279.82285   -46496.671
Averages over the last 6 of 11 rows, steps 500 to 1000:
Temp E_pair E_mol TotEng Press
305.805 73.4045 66.1362 171.756 -10669.2
Loop time of 36.1591 on 1 procs for 1000 steps with 816 atoms

undump      traj_all
undump      traj
