LAMMPS (31 Mar 2017)
#
units          metal
box tilt large
boundary       p p p
atom_style     full
bond_style     harmonic
angle_style    harmonic
dihedral_style fourier
improper_style none
pair_style     lj/cut/coul/long 12.0
kspace_style   ewald 1e-8
box tilt large
read_data      output.data
  triclinic box = (0 0 0) to (22.6273 19.5958 18.7943) with tilt (-11.3137 0 0)
  reading atoms ...
  537 atoms
  scanning bonds ...
  scanning angles ...
  scanning dihedrals ...
  scanning impropers ...
  reading bonds ...
  624 bonds
  reading angles ...
  2234 angles
  reading dihedrals ...
  3820 dihedrals
  reading impropers ...
  2688 impropers
pair_modify    mix arithmetic shift yes tail no table 0
special_bonds  lj 0.0 0.0  0.00000 coul 0.0 0.0  0.00000
#   1     65.3700027  # Zn
#   2     12.0107002  # C1
#   3     14.0067396  # N1
#   4     12.0107002  # C2
#   5     12.0107002  # C3
#   6      1.0079401  # H2
#   7      1.0079401  # H3
#   8     12.0107002  # C4
#   9     12.0107002  # C5
#  10     12.0107002  # C6
#  11      1.0079401  # H1
#
variable    TK equal 300.0
variable    RandomSeed equal 123456789
#
dump        traj_all   all     custom 100  all.lammpstrj       element xs ys zs
dump_modify traj_all   element Zn C N C C H H C C C H  first yes sort id
dump        traj all xyz 100 traj.xyz
dump_modify traj element Zn C N C C H H C C C H sort id
#
velocity    all create 300 123456789
variable    dt     equal 0.0005
variable    tdamp  equal 100*0.0005
fix         2 all langevin 300 300 0.05 123456789
fix         3 all nve
thermo      100
run         10000
Ewald initialization ...
  G vector (1/distance) = 0.309749
  estimated absolute RMS force accuracy = 1.55629e-07
  estimated relative force accuracy = 1.08079e-08
  KSpace vectors: actual max1d max3d = 1165 12 7812
                  kxmax kymax kzmax  = 9 12 7
  update every 1 steps, delay 10 steps, check yes
Step Temp E_pair E_mol TotEng Press
0          300     149.4056    124.30966    294.50029   -41937.139
Averages over the last 51 of 101 rows, steps 5000 to 10000:
Temp E_pair E_mol TotEng Press
302.391 98.1918 31.219 150.362 8321.9
Loop time of 93.7975 on 4 procs for 10000 steps with 537 atoms

undump      traj_all
undump      traj
