LAMMPS (10 Mar 2017)
#
units          metal
boundary       p p p
atom_style     full
bond_style     harmonic
angle_style    harmonic
dihedral_style fourier
improper_style none
pair_style     lj/cut/coul/long 12.0
kspace_style   ewald 1e-8
read_data      sod_mim_adsorption_argon.data
  triclinic box = (0 0 0) to (32.554 32.554 32.554) with tilt (0 0 0)
  reading atoms ...
  2448 atoms
  scanning bonds ...
  scanning angles ...
  scanning dihedrals ...
  scanning impropers ...
  reading bonds ...
  2496 bonds
  reading angles ...
  9204 angles
  reading dihedrals ...
  14576 dihedrals
  reading impropers ...
  12672 impropers
pair_modify    mix arithmetic shift yes tail no table 0
special_bonds  lj 0.0 0.0  0.00000 coul 0.0 0.0  0.00000
#   1     65.3700027  # Zn
#   2     12.0107002  # C1
#   3     14.0067396  # N1
#   4     12.0107002  # C2
#   5     12.0107002  # C3
#   6      1.0079401  # H2
#   7      1.0079401  # H3
#   8     39.9480019  # Ar
#
variable    TK equal   77.0
variable    RandomSeed equal 123456789
#
dump        traj_all   all     custom 100  all.lammpstrj       element xs ys zs
dump_modify traj_all   element Zn C N C C H H Ar  first yes sort id
dump        traj all xyz 10 traj.xyz
dump_modify traj element Zn C N C C H H Ar
#
velocity    all create 77 123456789
variable    dt     equal 0.0005
variable    tdamp  equal 100*0.0005
fix         2 all langevin 77 77 0.05 123456789
fix         3 all nve
thermo      100
run         1000
Ewald initialization ...
  G vector (1/distance) = 0.312061
  estimated absolute RMS force accuracy = 1.44923e-07
  estimated relative force accuracy = 1.00644e-08
  KSpace vectors: actual max1d max3d = 4585 13 9841
                  kxmax kymax kzmax  = 13 13 13
  update every 1 steps, delay 10 steps, check yes
Step Temp E_pair E_mol TotEng Press
0           77    1030.8409    575.11643    1630.3124   -20705.295
Averages over the last 6 of 11 rows, steps 500 to 1000:
Temp E_pair E_mol TotEng Press
77.9176 749.841 106.42 880.906 22797.6
Loop time of 31.3057 on 16 procs for 1000 steps with 2448 atoms

undump      traj_all
undump      traj
